%nprocshared=4
%mem=4GB
%chk=cisa.chk
#p HSEh1PBE/GEN PSEUDO=READ SCRF=(Solvent=TetraHydroFuran)

HSE Vanadium 

0 1
V          0.01491       -2.00189       -0.10133
O         -0.16554       -3.35430       -0.93663
O          1.65825       -1.03074       -0.70183
O         -1.47009       -1.12654       -0.78325
O          0.49955       -2.68973        1.50021
N         -0.06361       -0.08732        1.39019
C          2.29497        0.06496       -0.53902
C          3.60498        0.16510       -1.16300
C          4.36543        1.29670       -0.96408
H          5.35050        1.40541       -1.40669
C          3.85354        2.32032       -0.16598
C          2.59477        2.26777        0.44157
H          2.26701        3.10825        1.04592
C          1.79146        1.16259        0.25655
C          0.39741        1.17697        0.81547
H         -0.29256        1.43392        0.00113
H          0.32428        1.99223        1.55476
C         -1.46366        0.04267        1.83478
H         -1.52640        0.76103        2.66942
H         -1.77100       -0.93315        2.22856
C         -2.40889        0.45881        0.74590
C         -3.35794        1.45584        0.98441
H         -3.40838        1.96081        1.94541
C         -4.23967        1.79582       -0.02444
C         -4.20712        1.19036       -1.27093
H         -4.91718        1.49319       -2.03574
C         -3.26333        0.19724       -1.53026
C         -2.36029       -0.17556       -0.50802
C          0.77381       -0.54101        2.50585
H          0.59846        0.05119        3.41966
H          1.82247       -0.40893        2.21952
C          0.51104       -2.02181        2.73441
H          1.30317       -2.44717        3.36416
H         -0.44089       -2.19264        3.25689
C          4.07679       -0.97894       -1.99281
H          4.09719       -1.90230       -1.40244
H          5.07520       -0.79002       -2.39386
H          3.38829       -1.16390       -2.82567
C         -3.19066       -0.48433       -2.86357
H         -2.20932       -0.33763       -3.33049
H         -3.95752       -0.10122       -3.54334
H         -3.32588       -1.56714       -2.76126
F         -5.16590        2.76384        0.21058
F          4.60055        3.40751        0.03214

V 0
LANL2DZ
****
C H N O F 0
6-31+G*
****

V 0
LANL2DZ





