%nprocshared=4
%mem=6GB
%chk=cisa_root2.chk
#p B3LYP/GEN PSEUDO=READ opt Freq=(Numer,SaveNormalModes) td(Root=2)

B3LYP Vanadium

0 1
V          0.02239       -1.88924        0.13239
O          0.07622       -3.30169       -0.56610
O          1.19450       -0.91479       -0.82422
O         -1.70282       -1.40856       -0.11471
O          0.54073       -2.30477        1.79318
N         -0.01754        0.34784        1.44525
C          2.13199        0.05017       -0.68265
C          3.37886       -0.16353       -1.31568
C          4.36305        0.82260       -1.20222
H          5.33365        0.69793       -1.67312
C          4.09701        1.97597       -0.47429
C          2.87995        2.19441        0.15372
H          2.71865        3.11199        0.71206
C          1.87398        1.22506        0.05092
C          0.51933        1.48168        0.66614
H         -0.20818        1.68615       -0.12876
H          0.57042        2.39104        1.29045
C         -1.40576        0.62344        1.87549
H         -1.44019        1.54374        2.48439
H         -1.71724       -0.20119        2.52708
C         -2.37755        0.73782        0.72772
C         -3.22394        1.84733        0.61063
H         -3.17448        2.66971        1.31854
C         -4.13949        1.88602       -0.43024
C         -4.24830        0.86331       -1.36548
H         -4.98132        0.94378       -2.16286
C         -3.41553       -0.25545       -1.26905
C         -2.47814       -0.30660       -0.21113
C          0.82841       -0.03362        2.58571
H          0.67340        0.62375        3.45986
H          1.87362        0.06227        2.27877
C          0.55307       -1.49345        2.95047
H          1.33576       -1.87012        3.62175
H         -0.40855       -1.61256        3.46961
C          3.61760       -1.43246       -2.09281
H          3.51460       -2.31625       -1.45195
H          4.61943       -1.43840       -2.53307
H          2.88208       -1.54649       -2.89762
C         -3.50070       -1.39364       -2.25300
H         -2.55487       -1.52403       -2.79267
H         -4.29467       -1.21906       -2.98561
H         -3.69881       -2.34267       -1.74156
F         -4.95969        2.96708       -0.54255
F          5.06772        2.92428       -0.36942

V 0
LANL2DZ
****
C H N O F 0
3-21G
****

V 0
LANL2DZ








