%nprocshared=4
%mem=4GB
%chk=cisa.chk
#p HSEh1PBE/GEN PSEUDO=READ opt SCRF=(Solvent=TetraHydroFuran) td=(root=1)

HSE Vanadium 

0 1
V          0.03260       -1.87320        0.09818
O          0.08873       -3.27638       -0.62065
O          1.24907       -0.93737       -0.82191
O         -1.67099       -1.39830       -0.24263
O          0.49449       -2.36647        1.74418
N         -0.02368        0.23115        1.40233
C          2.14182        0.05739       -0.66285
C          3.40342       -0.10882       -1.26990
C          4.34362        0.91251       -1.14203
H          5.32663        0.82280       -1.59544
C          4.01799        2.05215       -0.42324
C          2.78699        2.22282        0.18410
H          2.57712        3.13007        0.74342
C          1.82699        1.21595        0.06427
C          0.46421        1.40388        0.66368
H         -0.26259        1.60305       -0.13463
H          0.47015        2.29263        1.31597
C         -1.39942        0.47043        1.86935
H         -1.42383        1.34444        2.54032
H         -1.70591       -0.39897        2.46341
C         -2.37052        0.66322        0.74404
C         -3.22288        1.76787        0.70603
H         -3.18065        2.53542        1.47350
C         -4.12976        1.87214       -0.33320
C         -4.22295        0.92379       -1.34059
H         -4.95046        1.05384       -2.13687
C         -3.38091       -0.18759       -1.32108
C         -2.45395       -0.30661       -0.26577
C          0.84366       -0.12811        2.52662
H          0.70567        0.54488        3.38825
H          1.88257       -0.03991        2.19393
C          0.56706       -1.57165        2.90555
H          1.37227       -1.96242        3.53899
H         -0.37234       -1.68319        3.46345
C          3.70420       -1.36413       -2.03147
H          3.61777       -2.24648       -1.38674
H          4.71528       -1.33689       -2.44694
H          2.99382       -1.50645       -2.85375
C         -3.44577       -1.24467       -2.38155
H         -2.48927       -1.33437       -2.90962
H         -4.22458       -1.01669       -3.11448
H         -3.65572       -2.22774       -1.94488
F         -4.95714        2.94563       -0.37239
F          4.94455        3.03396       -0.30495

V 0
LANL2DZ
****
C H N O F 0
6-31+G*
****

V 0
LANL2DZ





