%nprocshared=4
%mem=4GB
%chk=cisa.chk
#p HSEh1PBE/GEN PSEUDO=READ SCRF=(Solvent=TetraHydroFuran)

HSE Vanadium 

0 1
V          0.01482       -2.00178       -0.10091
O         -0.16573       -3.35481       -0.93516
O          1.65769       -1.03046       -0.70237
O         -1.47059       -1.12711       -0.78258
O          0.49995       -2.68919        1.50082
N         -0.06349       -0.08672        1.38999
C          2.29490        0.06491       -0.53935
C          3.60507        0.16457       -1.16315
C          4.36576        1.29602       -0.96435
H          5.35091        1.40440       -1.40684
C          3.85400        2.31995       -0.16653
C          2.59516        2.26779        0.44091
H          2.26754        3.10846        1.04508
C          1.79163        1.16275        0.25604
C          0.39757        1.17741        0.81493
H         -0.29242        1.43421        0.00055
H          0.32451        1.99284        1.55403
C         -1.46349        0.04359        1.83476
H         -1.52601        0.76238        2.66905
H         -1.77081       -0.93200        2.22912
C         -2.40888        0.45923        0.74585
C         -3.35780        1.45646        0.98405
H         -3.40799        1.96193        1.94479
C         -4.23970        1.79598       -0.02480
C         -4.20742        1.18990       -1.27100
H         -4.91755        1.49242       -2.03586
C         -3.26376        0.19657       -1.53000
C         -2.36059       -0.17582       -0.50772
C          0.77400       -0.54010        2.50576
H          0.59869        0.05240        3.41938
H          1.82264       -0.40811        2.21933
C          0.51123       -2.02083        2.73476
H          1.30327       -2.44593        3.36479
H         -0.44077       -2.19147        3.25719
C          4.07665       -0.97976       -1.99266
H          4.09684       -1.90298       -1.40206
H          5.07511       -0.79116       -2.39374
H          3.38812       -1.16479       -2.82547
C         -3.19136       -0.48565       -2.86299
H         -2.20989       -0.33974       -3.32989
H         -3.95795       -0.10241       -3.54301
H         -3.32724       -1.56834       -2.76024
F         -5.16584        2.76417        0.20990
F          4.60122        3.40700        0.03144

V 0
LANL2DZ
****
C H N O F 0
6-31+G*
****

V 0
LANL2DZ





